
DEPTH = 256;              -- The number of memory addresses
WIDTH = 8;                -- The width of data in bits
ADDRESS_RADIX = HEX;      -- Address radix (hexadecimal)
DATA_RADIX = HEX;         -- Data radix (hexadecimal)

CONTENT BEGIN
    00 : 6E;
    01 : D1;
    02 : BC;
    03 : AD;
    04 : A5;
    05 : BE;
    06 : 1F;
    07 : DC;
    08 : 13;
    09 : DA;
    0A : 06;
    0B : C3;
    0C : 48;
    0D : 0C;
    0E : 34;
    0F : 1D;
    10 : E1;
    11 : 9A;
    12 : C9;
    13 : C2;
    14 : 51;
    15 : 7E;
    16 : 4D;
    17 : 30;
    18 : 3C;
    19 : B1;
    1A : B8;
    1B : 33;
    1C : 90;
    1D : 63;
    1E : F3;
    1F : 40;
    20 : 85;
    21 : 35;
    22 : C0;
    23 : CC;
    24 : E1;
    25 : 63;
    26 : 57;
    27 : 47;
    28 : B4;
    29 : FE;
    2A : E1;
    2B : 92;
    2C : 83;
    2D : 45;
    2E : B8;
    2F : D3;
    30 : 92;
    31 : 4C;
    32 : D4;
    33 : 47;
    34 : 8F;
    35 : 79;
    36 : A0;
    37 : 22;
    38 : 4A;
    39 : CF;
    3A : 4A;
    3B : D4;
    3C : DE;
    3D : EB;
    3E : BF;
    3F : 4A;
    40 : 07;
    41 : 5B;
    42 : 4C;
    43 : CA;
    44 : AD;
    45 : 76;
    46 : B1;
    47 : 7A;
    48 : 2E;
    49 : 9B;
    4A : 6B;
    4B : 12;
    4C : FF;
    4D : 63;
    4E : D4;
    4F : 83;
    50 : 16;
    51 : 7C;
    52 : 7B;
    53 : 40;
    54 : 1E;
    55 : 32;
    56 : 6E;
    57 : EC;
    58 : 31;
    59 : B8;
    5A : 77;
    5B : 2C;
    5C : 8C;
    5D : 8C;
    5E : A4;
    5F : 7E;
    60 : 78;
    61 : 87;
    62 : 7B;
    63 : DF;
    64 : 9E;
    65 : 52;
    66 : 00;
    67 : 36;
    68 : 3E;
    69 : 89;
    6A : 4E;
    6B : B7;
    6C : 65;
    6D : C4;
    6E : E2;
    6F : 47;
    70 : 84;
    71 : DD;
    72 : 1C;
    73 : 32;
    74 : 03;
    75 : D0;
    76 : 97;
    77 : D8;
    78 : 1C;
    79 : 62;
    7A : 93;
    7B : 87;
    7C : 1C;
    7D : A7;
    7E : A9;
    7F : 1F;
    80 : A0;
    81 : 2B;
    82 : 01;
    83 : D2;
    84 : 8A;
    85 : 54;
    86 : 3B;
    87 : F0;
    88 : 82;
    89 : 98;
    8A : 01;
    8B : 4A;
    8C : 91;
    8D : B0;
    8E : DC;
    8F : 4A;
    90 : 1A;
    91 : E0;
    92 : 39;
    93 : 23;
    94 : F1;
    95 : D6;
    96 : 16;
    97 : DB;
    98 : 02;
    99 : A7;
    9A : 0D;
    9B : 60;
    9C : 1F;
    9D : 68;
    9E : BE;
    9F : 4A;
    A0 : A3;
    A1 : C3;
    A2 : 78;
    A3 : 3D;
    A4 : 42;
    A5 : AF;
    A6 : 01;
    A7 : 2D;
    A8 : C9;
    A9 : A5;
    AA : 17;
    AB : F1;
    AC : 82;
    AD : F2;
    AE : 95;
    AF : C2;
    B0 : 1B;
    B1 : 6E;
    B2 : A1;
    B3 : C7;
    B4 : CF;
    B5 : 23;
    B6 : 08;
    B7 : 11;
    B8 : 48;
    B9 : F7;
    BA : D5;
    BB : AD;
    BC : 52;
    BD : 45;
    BE : 1B;
    BF : 6A;
    C0 : 7B;
    C1 : 54;
    C2 : 93;
    C3 : 21;
    C4 : 98;
    C5 : 39;
    C6 : A7;
    C7 : F7;
    C8 : F7;
    C9 : 7F;
    CA : AF;
    CB : 0E;
    CC : CE;
    CD : 7F;
    CE : A2;
    CF : D5;
    D0 : 60;
    D1 : CE;
    D2 : BF;
    D3 : 58;
    D4 : 4D;
    D5 : 82;
    D6 : E4;
    D7 : FD;
    D8 : 7D;
    D9 : 5A;
    DA : 89;
    DB : BE;
    DC : 3F;
    DD : 0B;
    DE : E7;
    DF : C5;
    E0 : 66;
    E1 : 78;
    E2 : 89;
    E3 : FF;
    E4 : DF;
    E5 : F3;
    E6 : 41;
    E7 : 8B;
    E8 : 8D;
    E9 : 26;
    EA : 85;
    EB : E8;
    EC : B7;
    ED : 87;
    EE : 87;
    EF : 99;
    F0 : B1;
    F1 : 1B;
    F2 : 81;
    F3 : 35;
    F4 : A4;
    F5 : 04;
    F6 : B5;
    F7 : 77;
    F8 : 0C;
    F9 : 37;
    FA : B5;
    FB : C0;
    FC : 80;
    FD : F5;
    FE : 32;
    FF : CB;
END;